xflr5 v6.39

Plane name :        CA2013 - Asa
Polar name :        T1-15.0 m/s-VLM2-7.5kg-x62.3mm-proj_area
Freestream speed :  15.000 m/s


   alpha      Beta       CL          CDi        CDv        CD         CY         Cl         Cm         Cn        Cni       QInf        XCP
  -20.000     0.000  -0.645765   0.017416   0.018184   0.035600  -0.000000   0.000000  -0.307857  -0.000000   0.000000   15.0000    -0.0628
  -19.500     0.000  -0.606704   0.015393   0.017750   0.033143  -0.000000   0.000000  -0.308309  -0.000000  -0.000000   15.0000    -0.0711
  -19.000     0.000  -0.567516   0.013488   0.017319   0.030807  -0.000000   0.000000  -0.308758  -0.000000  -0.000000   15.0000    -0.0806
  -18.500     0.000  -0.528207   0.011702   0.026786   0.038488  -0.000000   0.000000  -0.309225   0.000000   0.000000   15.0000    -0.0915
  -18.000     0.000  -0.488782   0.010038   0.026057   0.036095  -0.000000   0.000000  -0.309664   0.000000   0.000000   15.0000    -0.1041
  -17.500     0.000  -0.449247   0.008498   0.035172   0.043670  -0.000000   0.000000  -0.310122  -0.000000  -0.000000   15.0000    -0.1190
  -17.000     0.000  -0.409610   0.007084   0.034157   0.041241  -0.000000   0.000000  -0.310551  -0.000000  -0.000000   15.0000    -0.1368
  -16.500     0.000  -0.369876   0.005798   0.052463   0.058261  -0.000000   0.000000  -0.311020  -0.000000   0.000000   15.0000    -0.1585
  -16.000     0.000  -0.330052   0.004641   0.060347   0.064988  -0.000000   0.000000  -0.311460  -0.000000   0.000000   15.0000    -0.1854
  -15.500     0.000  -0.290145   0.003616   0.086954   0.090570  -0.000000   0.000000  -0.311938  -0.000000   0.000000   15.0000    -0.2197
  -15.000     0.000  -0.250160   0.002723   0.179874   0.182598  -0.000000   0.000000  -0.312561  -0.000000  -0.000000   15.0000    -0.2650
  -14.500     0.000  -0.210104   0.001965   0.207921   0.209886  -0.000000   0.000000  -0.313029  -0.000000   0.000000   15.0000    -0.3277
  -14.000     0.000  -0.169985   0.001342   0.199077   0.200419  -0.000000   0.000000  -0.313408  -0.000000  -0.000000   15.0000    -0.4200
  -13.500     0.000  -0.129808   0.000856   0.191421   0.192277  -0.000000   0.000000  -0.313784  -0.000000  -0.000000   15.0000    -0.5695
  -13.000     0.000  -0.089580   0.000508   0.184221   0.184729  -0.000000   0.000000  -0.314156  -0.000000   0.000000   15.0000    -0.8536
  -12.500     0.000  -0.049308   0.000299   0.177120   0.177419  -0.000000   0.000000  -0.314522  -0.000000  -0.000000   15.0000    -1.6020
  -12.000     0.000  -0.008999   0.000230   0.170024   0.170254  -0.000000   0.000000  -0.314883  -0.000000   0.000000   15.0000    -9.0580
  -11.500     0.000   0.031341   0.000302   0.162730   0.163032  -0.000000   0.000000  -0.315237  -0.000000   0.000000   15.0000     2.6810
  -11.000     0.000   0.071705   0.000516   0.155578   0.156094  -0.000000  -0.000000  -0.315586   0.000000   0.000000   15.0000     1.2068
  -10.500     0.000   0.112085   0.000872   0.148911   0.149783  -0.000000  -0.000000  -0.315930   0.000000   0.000000   15.0000     0.7944
  -10.000     0.000   0.152476   0.001370   0.142229   0.143600  -0.000000  -0.000000  -0.316267   0.000000  -0.000000   15.0000     0.6003
   -9.500     0.000   0.192871   0.002012   0.135531   0.137543  -0.000000  -0.000000  -0.316599   0.000000  -0.000000   15.0000     0.4875
   -9.000     0.000   0.233261   0.002797   0.128818   0.131615   0.000000  -0.000000  -0.316924   0.000000  -0.000000   15.0000     0.4137
   -8.500     0.000   0.273642   0.003726   0.122093   0.125818   0.000000  -0.000000  -0.317243   0.000000  -0.000000   15.0000     0.3617
   -8.000     0.000   0.314006   0.004798   0.115325   0.120123   0.000000  -0.000000  -0.317554   0.000000   0.000000   15.0000     0.3231
   -7.500     0.000   0.354345   0.006014   0.108055   0.114069   0.000000  -0.000000  -0.317859   0.000000   0.000000   15.0000     0.2932
   -7.000     0.000   0.394654   0.007373   0.100391   0.107765   0.000000  -0.000000  -0.318156   0.000000   0.000000   15.0000     0.2695
   -6.500     0.000   0.434926   0.008876   0.092844   0.101720   0.000000  -0.000000  -0.318446   0.000000   0.000000   15.0000     0.2501
   -6.000     0.000   0.475153   0.010522   0.085227   0.095748   0.000000  -0.000000  -0.318729   0.000000  -0.000000   15.0000     0.2341
   -5.500     0.000   0.515328   0.012310   0.078388   0.090698   0.000000  -0.000000  -0.319007   0.000000   0.000000   15.0000     0.2205
   -5.000     0.000   0.555446   0.014239   0.072724   0.086963   0.000000  -0.000000  -0.319280   0.000000   0.000000   15.0000     0.2090
   -4.500     0.000   0.595498   0.016310   0.067920   0.084230   0.000000  -0.000000  -0.319547   0.000000   0.000000   15.0000     0.1990
   -4.000     0.000   0.635479   0.018522   0.063718   0.082240   0.000000  -0.000000  -0.319809   0.000000   0.000000   15.0000     0.1902
   -3.500     0.000   0.675382   0.020873   0.060027   0.080900   0.000000  -0.000000  -0.320064   0.000000  -0.000000   15.0000     0.1825
   -3.000     0.000   0.715200   0.023362   0.056881   0.080243   0.000000  -0.000000  -0.320312   0.000000  -0.000000   15.0000     0.1757
   -2.500     0.000   0.754926   0.025988   0.053961   0.079950   0.000000  -0.000000  -0.320554   0.000000  -0.000000   15.0000     0.1696
   -2.000     0.000   0.794553   0.028751   0.051219   0.079970   0.000000  -0.000000  -0.320787   0.000000   0.000000   15.0000     0.1641
   -1.500     0.000   0.834076   0.031648   0.048799   0.080448   0.000000  -0.000000  -0.321014   0.000000  -0.000000   15.0000     0.1591
   -1.000     0.000   0.873487   0.034679   0.046636   0.081316   0.000000  -0.000000  -0.321234   0.000000   0.000000   15.0000     0.1546
   -0.500     0.000   0.912779   0.037842   0.044716   0.082558   0.000000  -0.000000  -0.321446   0.000000   0.000000   15.0000     0.1505
    0.000     0.000   0.951947   0.041134   0.042897   0.084031   0.000000  -0.000000  -0.321650   0.000000  -0.000000   15.0000     0.1468
    0.500     0.000   0.990984   0.044556   0.041157   0.085712   0.000000  -0.000000  -0.321846   0.000000  -0.000000   15.0000     0.1433
    1.000     0.000   1.029884   0.048103   0.039470   0.087573   0.000000  -0.000000  -0.322034   0.000000   0.000000   15.0000     0.1401
    1.500     0.000   1.068640   0.051776   0.037820   0.089596   0.000000  -0.000000  -0.322214   0.000000  -0.000000   15.0000     0.1372
    2.000     0.000   1.107245   0.055571   0.036204   0.091774   0.000000  -0.000000  -0.322386   0.000000   0.000000   15.0000     0.1345
    2.500     0.000   1.145694   0.059486   0.034602   0.094088   0.000000  -0.000000  -0.322549   0.000000  -0.000000   15.0000     0.1319
    3.000     0.000   1.183981   0.063520   0.033057   0.096577   0.000000  -0.000000  -0.322705   0.000000  -0.000000   15.0000     0.1296
    3.500     0.000   1.222099   0.067669   0.031545   0.099214   0.000000  -0.000000  -0.322852   0.000000  -0.000000   15.0000     0.1274
    4.000     0.000   1.260043   0.071933   0.030051   0.101984   0.000000  -0.000000  -0.322990   0.000000  -0.000000   15.0000     0.1253
    4.500     0.000   1.297806   0.076307   0.028884   0.105190   0.000000  -0.000000  -0.323121   0.000000  -0.000000   15.0000     0.1234
    5.000     0.000   1.335382   0.080789   0.028090   0.108879   0.000000  -0.000000  -0.323243   0.000000  -0.000000   15.0000     0.1215
    5.500     0.000   1.372766   0.085378   0.027479   0.112856   0.000000  -0.000000  -0.323358   0.000000   0.000000   15.0000     0.1198
    6.000     0.000   1.409952   0.090069   0.027007   0.117076   0.000000  -0.000000  -0.323464   0.000000  -0.000000   15.0000     0.1182
    6.500     0.000   1.446934   0.094860   0.026644   0.121504   0.000000  -0.000000  -0.323561   0.000000   0.000000   15.0000     0.1167
    7.000     0.000   1.483707   0.099749   0.026425   0.126175   0.000000  -0.000000  -0.323650   0.000000  -0.000000   15.0000     0.1153
    7.500     0.000   1.520265   0.104732   0.026289   0.131021   0.000000  -0.000000  -0.323730   0.000000   0.000000   15.0000     0.1139
    8.000     0.000   1.556602   0.109806   0.026191   0.135997   0.000000  -0.000000  -0.323802   0.000000   0.000000   15.0000     0.1126
    8.500     0.000   1.592715   0.114968   0.026141   0.141109   0.000000  -0.000000  -0.323865   0.000000  -0.000000   15.0000     0.1114
    9.000     0.000   1.628596   0.120215   0.026135   0.146350   0.000000  -0.000000  -0.323919   0.000000   0.000000   15.0000     0.1102
    9.500     0.000   1.664241   0.125543   0.026146   0.151689   0.000000  -0.000000  -0.323964   0.000000  -0.000000   15.0000     0.1091
   10.000     0.000   1.699646   0.130950   0.026213   0.157163   0.000000  -0.000000  -0.324001   0.000000  -0.000000   15.0000     0.1081
   10.500     0.000   1.734804   0.136431   0.026322   0.162753   0.000000  -0.000000  -0.324029   0.000000   0.000000   15.0000     0.1071
   11.000     0.000   1.769712   0.141983   0.026407   0.168390   0.000000  -0.000000  -0.324048  -0.000000  -0.000000   15.0000     0.1061
   11.500     0.000   1.804364   0.147603   0.026501   0.174103   0.000000  -0.000000  -0.324058  -0.000000   0.000000   15.0000     0.1052
   12.000     0.000   1.838756   0.153286   0.026703   0.179989   0.000000  -0.000000  -0.324059  -0.000000   0.000000   15.0000     0.1043
   12.500     0.000   1.872883   0.159031   0.026909   0.185939   0.000000  -0.000000  -0.324051  -0.000000  -0.000000   15.0000     0.1035
   13.000     0.000   1.906741   0.164831   0.027144   0.191976   0.000000  -0.000000  -0.324035  -0.000000   0.000000   15.0000     0.1027
   13.500     0.000   1.940325   0.170685   0.027425   0.198110   0.000000  -0.000000  -0.324010  -0.000000  -0.000000   15.0000     0.1019
   14.000     0.000   1.973632   0.176587   0.027729   0.204316   0.000000  -0.000000  -0.323975  -0.000000  -0.000000   15.0000     0.1012
   14.500     0.000   2.006657   0.182535   0.027997   0.210532   0.000000  -0.000000  -0.323932  -0.000000  -0.000000   15.0000     0.1005
   15.000     0.000   2.039396   0.188524   0.028328   0.216852   0.000000  -0.000000  -0.323881  -0.000000   0.000000   15.0000     0.0998
   15.500     0.000   2.071845   0.194550   0.028710   0.223260   0.000000  -0.000000  -0.323820  -0.000000   0.000000   15.0000     0.0992
   16.000     0.000   2.104000   0.200609   0.029110   0.229719   0.000000  -0.000000  -0.323751  -0.000000  -0.000000   15.0000     0.0986
   16.500     0.000   2.135859   0.206697   0.029517   0.236214   0.000000  -0.000000  -0.323672  -0.000000  -0.000000   15.0000     0.0980
   17.000     0.000   2.167417   0.212811   0.030039   0.242850   0.000000  -0.000000  -0.323586  -0.000000   0.000000   15.0000     0.0974
   17.500     0.000   2.198670   0.218946   0.030530   0.249476   0.000000  -0.000000  -0.323490  -0.000000  -0.000000   15.0000     0.0969
   18.000     0.000   2.229616   0.225097   0.031106   0.256203   0.000000  -0.000000  -0.323386  -0.000000  -0.000000   15.0000     0.0964
   18.500     0.000   2.260252   0.231262   0.025767   0.257029   0.000000  -0.000000  -0.323267  -0.000000   0.000000   15.0000     0.0959
   19.000     0.000   2.290573   0.237435   0.021527   0.258961   0.000000  -0.000000  -0.323140  -0.000000  -0.000000   15.0000     0.0954
   19.500     0.000   2.320578   0.243612   0.018770   0.262382   0.000000  -0.000000  -0.323007  -0.000000   0.000000   15.0000     0.0949
   20.000     0.000   2.350264   0.249790   0.017526   0.267315   0.000000  -0.000000  -0.322867  -0.000000   0.000000   15.0000     0.0945


