xflr5 v6.39

Plane name : CA2013 - 1,8 x 0,25
Polar name : T1-15.0 m/s-VLM2-proj_area
Freestream speed : 15.000 m/s


alpha Beta CL CDi CDv CD CY Cl Cm Cn Cni QInf XCP
-20.000 0.000 -0.881713 0.059188 0.023265 0.082453 -0.000000 0.000000 0.355596 0.000000 0.000000 15.0000 0.1590
-19.500 0.000 -0.840518 0.055818 0.022834 0.078652 -0.000000 0.000000 0.344747 0.000000 0.000000 15.0000 0.1612
-19.000 0.000 -0.799146 0.052572 0.022379 0.074951 -0.000000 0.000000 0.333988 0.000000 0.000000 15.0000 0.1636
-18.500 0.000 -0.757602 0.049452 0.022004 0.071456 -0.000000 0.000000 0.323371 0.000000 0.000000 15.0000 0.1664
-18.000 0.000 -0.715894 0.046461 0.031246 0.077707 -0.000000 0.000000 0.316247 0.000000 0.000000 15.0000 0.1694
-17.500 0.000 -0.674029 0.043602 0.030513 0.074116 -0.000000 0.000000 0.305736 0.000000 0.000000 15.0000 0.1729
-17.000 0.000 -0.632013 0.040879 0.039409 0.080288 -0.000000 0.000000 0.298739 -0.000000 0.000000 15.0000 0.1768
-16.500 0.000 -0.589852 0.038293 0.047994 0.086287 -0.000000 0.000000 0.291763 -0.000000 0.000000 15.0000 0.1814
-16.000 0.000 -0.547555 0.035848 0.066028 0.101876 -0.000000 0.000000 0.288266 -0.000000 0.000000 15.0000 0.1867
-15.500 0.000 -0.505128 0.033546 0.083192 0.116738 -0.000000 0.000000 0.284613 -0.000000 0.000000 15.0000 0.1928
-15.000 0.000 -0.462578 0.031390 0.128297 0.159687 -0.000000 0.000000 0.291024 -0.000000 0.000000 15.0000 0.2002
-14.500 0.000 -0.419912 0.029381 0.217459 0.246840 -0.000000 0.000000 0.313268 -0.000000 0.000000 15.0000 0.2091
-14.000 0.000 -0.377137 0.027523 0.207305 0.234827 -0.000000 0.000000 0.300389 -0.000000 0.000000 15.0000 0.2201
-13.500 0.000 -0.334261 0.025816 0.199151 0.224967 -0.000000 0.000000 0.288346 -0.000000 0.000000 15.0000 0.2339
-13.000 0.000 -0.291291 0.024264 0.191750 0.216015 -0.000000 0.000000 0.276703 -0.000000 0.000000 15.0000 0.2518
-12.500 0.000 -0.248234 0.022868 0.184568 0.207436 -0.000000 0.000000 0.265271 -0.000000 0.000000 15.0000 0.2760
-12.000 0.000 -0.205098 0.021630 0.177394 0.199023 -0.000000 0.000000 0.253979 -0.000000 0.000000 15.0000 0.3105
-11.500 0.000 -0.161891 0.020551 0.170124 0.190675 -0.000000 0.000000 0.242788 -0.000000 0.000000 15.0000 0.3635
-11.000 0.000 -0.118619 0.019633 0.162827 0.182460 -0.000000 0.000000 0.231725 0.000000 0.000000 15.0000 0.4552
-10.500 0.000 -0.075291 0.018877 0.155961 0.174838 -0.000000 0.000000 0.220962 0.000000 0.000000 15.0000 0.6528
-10.000 0.000 -0.031913 0.018284 0.149233 0.167517 -0.000000 -0.000000 0.210402 0.000000 0.000000 15.0000 1.3881
-9.500 0.000 0.011506 0.017856 0.142483 0.160339 -0.000000 -0.000000 0.199993 0.000000 0.000000 15.0000 -3.4280
-9.000 0.000 0.054958 0.017594 0.135718 0.153313 -0.000000 -0.000000 0.189735 0.000000 0.000000 15.0000 -0.6292
-8.500 0.000 0.098437 0.017499 0.128943 0.146441 0.000000 -0.000000 0.179632 0.000000 0.000000 15.0000 -0.3019
-8.000 0.000 0.141933 0.017570 0.122144 0.139714 0.000000 -0.000000 0.169694 0.000000 -0.000000 15.0000 -0.1751
-7.500 0.000 0.185441 0.017809 0.114951 0.132761 0.000000 -0.000000 0.159790 0.000000 -0.000000 15.0000 -0.1078
-7.000 0.000 0.228951 0.018217 0.107306 0.125523 0.000000 -0.000000 0.149896 0.000000 -0.000000 15.0000 -0.0661
-6.500 0.000 0.272456 0.018793 0.099608 0.118402 0.000000 -0.000000 0.140154 0.000000 -0.000000 15.0000 -0.0376
-6.000 0.000 0.315949 0.019538 0.091972 0.111511 0.000000 -0.000000 0.130604 0.000000 -0.000000 15.0000 -0.0170
-5.500 0.000 0.359421 0.020453 0.084618 0.105071 0.000000 -0.000000 0.121330 0.000000 -0.000000 15.0000 -0.0014
-5.000 0.000 0.402865 0.021536 0.078592 0.100127 0.000000 -0.000000 0.112710 0.000000 -0.000000 15.0000 0.0108
-4.500 0.000 0.446273 0.022788 0.073526 0.096314 0.000000 -0.000000 0.104610 0.000000 -0.000000 15.0000 0.0207
-4.000 0.000 0.489637 0.024208 0.069125 0.093333 0.000000 -0.000000 0.096927 0.000000 -0.000000 15.0000 0.0288
-3.500 0.000 0.532949 0.025796 0.065227 0.091023 0.000000 -0.000000 0.089611 0.000000 -0.000000 15.0000 0.0356
-3.000 0.000 0.576203 0.027552 0.061955 0.089508 0.000000 -0.000000 0.082708 0.000000 -0.000000 15.0000 0.0414
-2.500 0.000 0.619389 0.029475 0.058965 0.088440 0.000000 -0.000000 0.076092 0.000000 -0.000000 15.0000 0.0463
-2.000 0.000 0.662500 0.031564 0.056117 0.087681 0.000000 -0.000000 0.069719 0.000000 -0.000000 15.0000 0.0506
-1.500 0.000 0.705530 0.033818 0.053626 0.087444 0.000000 -0.000000 0.063663 0.000000 -0.000000 15.0000 0.0544
-1.000 0.000 0.748469 0.036236 0.051390 0.087625 0.000000 -0.000000 0.057885 0.000000 -0.000000 15.0000 0.0578
-0.500 0.000 0.791310 0.038816 0.049432 0.088248 0.000000 -0.000000 0.052404 0.000000 -0.000000 15.0000 0.0608
0.000 0.000 0.834046 0.041559 0.047600 0.089158 0.000000 -0.000000 0.047167 0.000000 -0.000000 15.0000 0.0635
0.500 0.000 0.876670 0.044461 0.045847 0.090308 0.000000 -0.000000 0.042161 0.000000 -0.000000 15.0000 0.0660
1.000 0.000 0.919173 0.047522 0.044155 0.091677 0.000000 -0.000000 0.037378 -0.000000 -0.000000 15.0000 0.0682
1.500 0.000 0.961548 0.050739 0.042493 0.093232 0.000000 -0.000000 0.032812 -0.000000 -0.000000 15.0000 0.0702
2.000 0.000 1.003789 0.054112 0.040862 0.094975 0.000000 -0.000000 0.028464 -0.000000 -0.000000 15.0000 0.0721
2.500 0.000 1.045887 0.057638 0.039244 0.096881 0.000000 -0.000000 0.024326 -0.000000 -0.000000 15.0000 0.0738
3.000 0.000 1.087835 0.061315 0.037682 0.098997 0.000000 -0.000000 0.020415 -0.000000 -0.000000 15.0000 0.0754
3.500 0.000 1.129625 0.065140 0.036157 0.101297 0.000000 -0.000000 0.016726 -0.000000 -0.000000 15.0000 0.0768
4.000 0.000 1.171252 0.069112 0.034654 0.103767 0.000000 -0.000000 0.013253 -0.000000 -0.000000 15.0000 0.0782
4.500 0.000 1.212708 0.073229 0.033384 0.106612 0.000000 -0.000000 0.010072 -0.000000 -0.000000 15.0000 0.0795
5.000 0.000 1.253985 0.077487 0.032556 0.110042 0.000000 -0.000000 0.007257 -0.000000 -0.000000 15.0000 0.0807
5.500 0.000 1.295076 0.081884 0.031925 0.113809 0.000000 -0.000000 0.004723 -0.000000 -0.000000 15.0000 0.0818
6.000 0.000 1.335976 0.086417 0.031440 0.117856 0.000000 -0.000000 0.002452 -0.000000 -0.000000 15.0000 0.0829
6.500 0.000 1.376676 0.091083 0.031073 0.122157 0.000000 -0.000000 0.000435 -0.000000 -0.000000 15.0000 0.0839
7.000 0.000 1.417171 0.095881 0.030840 0.126721 0.000000 -0.000000 -0.001321 -0.000000 -0.000000 15.0000 0.0849
7.500 0.000 1.457453 0.100805 0.030716 0.131521 0.000000 -0.000000 -0.002827 -0.000000 -0.000000 15.0000 0.0858
8.000 0.000 1.497517 0.105854 0.030635 0.136489 0.000000 -0.000000 -0.004103 -0.000000 -0.000000 15.0000 0.0867
8.500 0.000 1.537354 0.111024 0.030598 0.141623 0.000000 -0.000000 -0.005149 -0.000000 -0.000000 15.0000 0.0875
9.000 0.000 1.576961 0.116312 0.030611 0.146923 0.000000 -0.000000 -0.005962 -0.000000 -0.000000 15.0000 0.0883
9.500 0.000 1.616328 0.121714 0.030643 0.152356 0.000000 -0.000000 -0.006554 -0.000000 -0.000000 15.0000 0.0891
10.000 0.000 1.655452 0.127226 0.030730 0.157956 0.000000 -0.000000 -0.006911 -0.000000 -0.000000 15.0000 0.0898
10.500 0.000 1.694325 0.132846 0.030868 0.163713 0.000000 -0.000000 -0.007034 -0.000000 -0.000000 15.0000 0.0905
11.000 0.000 1.732942 0.138568 0.030992 0.169561 0.000000 -0.000000 -0.006945 -0.000000 -0.000000 15.0000 0.0912
11.500 0.000 1.771297 0.144391 0.031111 0.175502 0.000000 -0.000000 -0.006642 -0.000000 -0.000000 15.0000 0.0918
12.000 0.000 1.809384 0.150309 0.031355 0.181664 0.000000 -0.000000 -0.006079 -0.000000 -0.000000 15.0000 0.0925
12.500 0.000 1.847197 0.156319 0.031605 0.187924 0.000000 -0.000000 -0.005297 -0.000000 -0.000000 15.0000 0.0931
13.000 0.000 1.884732 0.162416 0.031894 0.194310 0.000000 -0.000000 -0.004283 -0.000000 -0.000000 15.0000 0.0937
13.500 0.000 1.921981 0.168597 0.032289 0.200886 0.000000 -0.000000 -0.003002 -0.000000 -0.000000 15.0000 0.0943
14.000 0.000 1.958941 0.174857 0.032710 0.207566 0.000000 -0.000000 -0.001494 -0.000000 -0.000000 15.0000 0.0948
14.500 0.000 1.995606 0.181192 0.033095 0.214287 0.000000 -0.000000 0.000221 -0.000000 -0.000000 15.0000 0.0954
15.000 0.000 2.031970 0.187597 0.033542 0.221140 0.000000 -0.000000 0.002174 -0.000000 -0.000000 15.0000 0.0959
15.500 0.000 2.068030 0.194070 0.034041 0.228111 0.000000 -0.000000 0.004361 -0.000000 -0.000000 15.0000 0.0965
16.000 0.000 2.103780 0.200603 0.034561 0.235164 0.000000 -0.000000 0.006772 -0.000000 -0.000000 15.0000 0.0970
16.500 0.000 2.139215 0.207195 0.035102 0.242296 0.000000 -0.000000 0.009410 -0.000000 -0.000000 15.0000 0.0975
17.000 0.000 2.174332 0.213839 0.035763 0.249601 0.000000 -0.000000 0.012305 -0.000000 -0.000000 15.0000 0.0980
17.500 0.000 2.209124 0.220531 0.036388 0.256919 0.000000 -0.000000 0.015402 -0.000000 -0.000000 15.0000 0.0985
18.000 0.000 2.243590 0.227267 0.037146 0.264412 0.000000 -0.000000 0.018756 -0.000000 -0.000000 15.0000 0.0990
18.500 0.000 2.277723 0.234041 0.031936 0.265977 0.000000 -0.000000 0.020385 -0.000000 -0.000000 15.0000 0.0994
19.000 0.000 2.311520 0.240850 0.027798 0.268648 0.000000 -0.000000 0.022587 -0.000000 -0.000000 15.0000 0.0999
19.500 0.000 2.344978 0.247687 0.025159 0.272846 0.000000 -0.000000 0.025495 -0.000000 -0.000000 15.0000 0.1004
20.000 0.000 2.378092 0.254549 0.024191 0.278740 0.000000 -0.000000 0.029242 -0.000000 -0.000000 15.0000 0.1008


